File G:\My Drive\SimCenter Summer Project\Examples\SAP2000\3SE\3SE_wholeFrame.$2k was saved on m/d/yy at h:mm:ss
 
TABLE:  "ACTIVE DEGREES OF FREEDOM"
   UX=Yes   UY=Yes   UZ=Yes   RX=Yes   RY=Yes   RZ=Yes
 
TABLE:  "ANALYSIS OPTIONS"
   Solver=Advanced   SolverProc=Auto   Force32Bit=No   StiffCase=None   GeomMod=None   HingeOpt="In Elements"
 
TABLE:  "AUTO WAVE 3 - WAVE CHARACTERISTICS - GENERAL"
   WaveChar=Default   WaveType="From Theory"   KinFactor=1   SWaterDepth=1800   WaveHeight=720   WavePeriod=12   WaveTheory=Linear
 
TABLE:  "CASE - MODAL 1 - GENERAL"
   Case=MODAL   ModeType=Eigen   MaxNumModes=12   MinNumModes=1   EigenShift=0   EigenCutoff=0   EigenTol=1E-09   AutoShift=Yes
 
TABLE:  "CASE - STATIC 1 - LOAD ASSIGNMENTS"
   Case=DEAD   LoadType="Load pattern"   LoadName=DEAD   LoadSF=1
 
TABLE:  "CONNECTIVITY - FRAME"
   Frame=1   JointI=1   JointJ=2   IsCurved=No   GUID=0c84f5d9-6a7e-4923-aaaa-3bcbec868131
   Frame=2   JointI=3   JointJ=4   IsCurved=No   GUID=fb7011d8-bb02-4090-ab85-9c8f83c9562e
   Frame=3   JointI=5   JointJ=6   IsCurved=No   GUID=99e08f81-0c56-4a72-a97e-b1e5de35480b
   Frame=4   JointI=7   JointJ=8   IsCurved=No   GUID=b1ce0986-6aa6-469e-ae18-ce1c4b584ac7
   Frame=5   JointI=9   JointJ=10   IsCurved=No   GUID=a65faff6-8b76-4694-b524-b7f89b8a8f39
   Frame=6   JointI=2   JointJ=4   IsCurved=No   GUID=0f46e4eb-0056-4d5a-be29-d34357c43872
   Frame=7   JointI=4   JointJ=6   IsCurved=No   GUID=9a2e0d86-a494-416b-8af0-ab327a16d896
   Frame=8   JointI=6   JointJ=8   IsCurved=No   GUID=7cd3a1c6-8173-433e-93d5-d7e416dbc50d
   Frame=9   JointI=8   JointJ=10   IsCurved=No   GUID=db49554e-3adb-4331-bcd0-854fcfc4c7f2
   Frame=64   JointI=23   JointJ=24   IsCurved=No   GUID=595bb81c-81ad-4732-9c57-0276fb08cf23
   Frame=65   JointI=25   JointJ=26   IsCurved=No   GUID=7bddeb33-e34b-490d-81dd-d74147e144a8
   Frame=66   JointI=27   JointJ=28   IsCurved=No   GUID=a1f98bb2-961c-4b44-be34-bf57bfd5fc13
   Frame=67   JointI=29   JointJ=30   IsCurved=No   GUID=8ae7f560-49b6-415d-b919-a51f5eb0ea64
   Frame=68   JointI=31   JointJ=32   IsCurved=No   GUID=9dd67c45-fcb3-4a52-a82c-f8bef7a01ed0
   Frame=69   JointI=24   JointJ=26   IsCurved=No   GUID=65bec03f-ab45-43c9-820b-1f8ba5b4c366
   Frame=70   JointI=26   JointJ=28   IsCurved=No   GUID=ef270b41-e3bd-4f8e-98cc-f38524fce8e4
   Frame=71   JointI=28   JointJ=30   IsCurved=No   GUID=0f9b25bd-dcf1-4261-b5fb-53e97216dda3
   Frame=72   JointI=30   JointJ=32   IsCurved=No   GUID=ee63073f-cabe-4cc3-8994-29d6f6bcb9fe
   Frame=73   JointI=33   JointJ=34   IsCurved=No   GUID=40c1479e-8417-4c6e-a597-a1955c5a0df5
   Frame=74   JointI=35   JointJ=36   IsCurved=No   GUID=5b647e93-30d0-4a4f-b234-7273d29e0772
   Frame=75   JointI=37   JointJ=38   IsCurved=No   GUID=ac08e01a-8fde-4f9e-ae82-26abf84173e8
   Frame=76   JointI=39   JointJ=40   IsCurved=No   GUID=fb1e3461-d26f-4876-8f48-af2f4a3e43cf
   Frame=77   JointI=41   JointJ=42   IsCurved=No   GUID=fd9754a9-6822-4225-b8c0-799b9983000e
   Frame=78   JointI=34   JointJ=36   IsCurved=No   GUID=470d1632-e216-49d7-99ce-829cf0029ce7
   Frame=79   JointI=36   JointJ=38   IsCurved=No   GUID=5efe691b-92d5-44ef-bbcf-0b07d59b2417
   Frame=80   JointI=38   JointJ=40   IsCurved=No   GUID=d69def1d-54fa-4c99-bacc-e4265a70225f
   Frame=81   JointI=40   JointJ=42   IsCurved=No   GUID=a1c6d75d-e348-4920-b020-4ebf18e7ac45
   Frame=82   JointI=43   JointJ=44   IsCurved=No   GUID=b74211d2-0037-4f7f-83bb-64755aa8dab9
   Frame=83   JointI=45   JointJ=46   IsCurved=No   GUID=530d2c4c-1943-4823-b002-f025d5dd4a9e
   Frame=84   JointI=47   JointJ=48   IsCurved=No   GUID=aa303a26-9779-43a1-a01b-198a184b397b
   Frame=85   JointI=49   JointJ=50   IsCurved=No   GUID=00b41be1-0168-4f65-b032-f3490394de2e
   Frame=86   JointI=51   JointJ=52   IsCurved=No   GUID=fceee6d1-1933-4014-b5e9-7647c7fbe278
   Frame=87   JointI=44   JointJ=46   IsCurved=No   GUID=110878db-be59-4d63-a732-c97861d78fc3
   Frame=88   JointI=46   JointJ=48   IsCurved=No   GUID=75ffe393-f31d-48de-ba6c-f76ed421b292
   Frame=89   JointI=48   JointJ=50   IsCurved=No   GUID=db67e0b9-f152-4a62-bc85-46d8313de2c5
   Frame=90   JointI=50   JointJ=52   IsCurved=No   GUID=920c9852-01b8-42ca-8df0-115f47175832
   Frame=91   JointI=53   JointJ=54   IsCurved=No   GUID=b61ef1c3-c12d-4a4f-99d2-e3079ca767e5
   Frame=92   JointI=55   JointJ=56   IsCurved=No   GUID=f6b4cfcf-642d-4a50-a812-c297e34ff5bf
   Frame=93   JointI=57   JointJ=58   IsCurved=No   GUID=d827eb2e-1fa4-4a71-9d92-aa0873107ed0
   Frame=94   JointI=59   JointJ=60   IsCurved=No   GUID=20dcf585-4226-4b72-b16b-5f4f1653f55a
   Frame=95   JointI=61   JointJ=62   IsCurved=No   GUID=d9bfc86b-98f2-4119-9dc7-4b5900a2fdb1
   Frame=96   JointI=54   JointJ=56   IsCurved=No   GUID=66a650b5-81cc-48bd-9ede-01e27074b67a
   Frame=97   JointI=56   JointJ=58   IsCurved=No   GUID=c5c9ff29-cd03-4ca7-8cc9-0834201b3cb1
   Frame=98   JointI=58   JointJ=60   IsCurved=No   GUID=68580869-3dba-4f18-bb01-933b2e2a35d5
   Frame=99   JointI=60   JointJ=62   IsCurved=No   GUID=da7cef6a-25c3-4a2c-99b9-44644a64c673
   Frame=100   JointI=63   JointJ=64   IsCurved=No   GUID=4045fd0e-6155-4dc4-af09-d7c9a56939b9
   Frame=101   JointI=65   JointJ=66   IsCurved=No   GUID=27deea24-1e2b-48f3-a2ce-f5acf2258b43
   Frame=102   JointI=67   JointJ=68   IsCurved=No   GUID=76361e31-2399-4b96-8aa5-08472d825ce5
   Frame=103   JointI=69   JointJ=70   IsCurved=No   GUID=2f4d2973-ba2e-49e8-93fc-e16777a8d65d
   Frame=104   JointI=71   JointJ=72   IsCurved=No   GUID=fdf2bb6d-77dc-481f-b8d9-cd020062143c
   Frame=105   JointI=64   JointJ=66   IsCurved=No   GUID=301ddca9-87c9-446a-aa5b-acf40560286a
   Frame=106   JointI=66   JointJ=68   IsCurved=No   GUID=7d9ed499-a6c7-4b15-8fce-f500d778254d
   Frame=107   JointI=68   JointJ=70   IsCurved=No   GUID=0024ad4a-581f-4b9a-839e-4ca9dd8d9355
   Frame=108   JointI=70   JointJ=72   IsCurved=No   GUID=164c4288-32de-4c0f-b84d-b080124446e3
   Frame=109   JointI=73   JointJ=74   IsCurved=No   GUID=6586d3ad-bbf0-429d-9037-3a561c1c957c
   Frame=110   JointI=75   JointJ=76   IsCurved=No   GUID=d6dfecea-fd9c-41c3-b6ce-22296d7228bc
   Frame=111   JointI=77   JointJ=78   IsCurved=No   GUID=d9fe0c5b-0c6d-4ba1-85f3-8a32e653f7b1
   Frame=112   JointI=79   JointJ=80   IsCurved=No   GUID=e234ec0c-850a-4569-9aa4-a87248b487fa
   Frame=113   JointI=81   JointJ=82   IsCurved=No   GUID=c6d1e5c1-8ee3-497a-a210-47b86eb45917
   Frame=114   JointI=74   JointJ=76   IsCurved=No   GUID=4667ceb6-8c21-4cb5-9238-ec0d0a57dcc7
   Frame=115   JointI=76   JointJ=78   IsCurved=No   GUID=45bf24ce-2c45-4193-b452-99b8ed380f00
   Frame=116   JointI=78   JointJ=80   IsCurved=No   GUID=9965e2e7-e65a-48fe-b67b-36987e0bcf8c
   Frame=117   JointI=80   JointJ=82   IsCurved=No   GUID=979db790-32fd-4123-98a0-70bbd35f088d
   Frame=119   JointI=74   JointJ=64   IsCurved=No   GUID=4d80c144-211a-45c9-bafb-15e9f1c2fa52
   Frame=120   JointI=64   JointJ=54   IsCurved=No   GUID=62a42462-d974-47e4-a751-1de6af1f5222
   Frame=121   JointI=54   JointJ=44   IsCurved=No   GUID=246b6ac8-0bb8-4a94-a04c-9bcbd992e13b
   Frame=122   JointI=44   JointJ=34   IsCurved=No   GUID=624c0bcd-9323-4235-a050-c99acaf4379d
   Frame=123   JointI=34   JointJ=24   IsCurved=No   GUID=1684e84e-2008-4d0f-82b5-ddaee050b644
   Frame=124   JointI=24   JointJ=2   IsCurved=No   GUID=272a19d7-f604-4c4c-b54f-5d6f1cd155af
   Frame=125   JointI=76   JointJ=66   IsCurved=No   GUID=69bd0818-7850-4a1f-8118-10f29c9026a2
   Frame=126   JointI=66   JointJ=56   IsCurved=No   GUID=34bb28d1-5c13-4658-a56b-b31e16f21e52
   Frame=127   JointI=56   JointJ=46   IsCurved=No   GUID=e2c906c7-f61c-46a3-b200-b388502173c7
   Frame=128   JointI=46   JointJ=36   IsCurved=No   GUID=e1cf5069-f576-4972-9c7e-2b6d482c7181
   Frame=129   JointI=36   JointJ=26   IsCurved=No   GUID=b7ab96ae-79bf-46a1-b2ee-661aba26c87d
   Frame=130   JointI=26   JointJ=4   IsCurved=No   GUID=d40bf14a-9387-4bc3-a41c-f4c299610045
   Frame=131   JointI=78   JointJ=68   IsCurved=No   GUID=b21166ad-234a-44db-b00c-821df51b03f1
   Frame=132   JointI=68   JointJ=58   IsCurved=No   GUID=a3237746-711b-4c70-80e9-2f954b0c917d
   Frame=133   JointI=58   JointJ=48   IsCurved=No   GUID=e461f241-3f11-4e28-9999-01387dd29cce
   Frame=134   JointI=48   JointJ=38   IsCurved=No   GUID=13dcf121-92e7-4ece-aa5e-7fd6e9b8f3d9
   Frame=135   JointI=38   JointJ=28   IsCurved=No   GUID=e48dc186-2303-45ed-bddf-0ef8fc9df937
   Frame=136   JointI=28   JointJ=6   IsCurved=No   GUID=27dc6b5f-8f2a-45d9-9381-4fd39a9bdb5c
   Frame=137   JointI=80   JointJ=70   IsCurved=No   GUID=c6827af6-a776-423c-b4cd-4ad390bc29ca
   Frame=138   JointI=70   JointJ=60   IsCurved=No   GUID=898f8ff4-f70a-4232-9de0-0515884b4116
   Frame=139   JointI=60   JointJ=50   IsCurved=No   GUID=3b0f44a0-39c4-46c0-8429-7a4d4423737d
   Frame=140   JointI=50   JointJ=40   IsCurved=No   GUID=39882cf5-81f2-40db-b37f-1ef796af9126
   Frame=141   JointI=40   JointJ=30   IsCurved=No   GUID=c8b88739-b81b-4648-8063-2c11e50a6a7b
   Frame=142   JointI=30   JointJ=8   IsCurved=No   GUID=7b1fbbe4-d7ba-4c28-88e0-10d660ac6c2a
   Frame=143   JointI=82   JointJ=72   IsCurved=No   GUID=d4ff0f6c-67f4-4c4c-9457-eb62984fc882
   Frame=144   JointI=72   JointJ=62   IsCurved=No   GUID=f1d7e684-af7b-47aa-8f73-0fac15844025
   Frame=145   JointI=62   JointJ=52   IsCurved=No   GUID=069973a8-6664-4b8f-a234-dbba89768f17
   Frame=146   JointI=52   JointJ=42   IsCurved=No   GUID=dd7aa53e-581b-4f8b-942a-1dacb030ec8e
   Frame=147   JointI=42   JointJ=32   IsCurved=No   GUID=d2781aa4-3b90-4d6c-bf26-52d81a6737c0
   Frame=148   JointI=32   JointJ=10   IsCurved=No   GUID=221fdd3c-1379-4d69-975e-81842545d167
 
TABLE:  "COORDINATE SYSTEMS"
   Name=GLOBAL   Type=Cartesian   X=0   Y=0   Z=0   AboutZ=0   AboutY=0   AboutX=0
 
TABLE:  "DATABASE DOCUMENTATION"
 
TABLE:  "DATABASE FORMAT TYPES"
   UnitsCurr=Yes   OverrideE=No
 
TABLE:  "FRAME AUTO MESH ASSIGNMENTS"
   Frame=1   AutoMesh=Yes   AtJoints=Yes   AtFrames=No   NumSegments=0   MaxLength=0   MaxDegrees=0
   Frame=2   AutoMesh=Yes   AtJoints=Yes   AtFrames=No   NumSegments=0   MaxLength=0   MaxDegrees=0
   Frame=3   AutoMesh=Yes   AtJoints=Yes   AtFrames=No   NumSegments=0   MaxLength=0   MaxDegrees=0
   Frame=4   AutoMesh=Yes   AtJoints=Yes   AtFrames=No   NumSegments=0   MaxLength=0   MaxDegrees=0
   Frame=5   AutoMesh=Yes   AtJoints=Yes   AtFrames=No   NumSegments=0   MaxLength=0   MaxDegrees=0
   Frame=6   AutoMesh=Yes   AtJoints=Yes   AtFrames=No   NumSegments=0   MaxLength=0   MaxDegrees=0
   Frame=7   AutoMesh=Yes   AtJoints=Yes   AtFrames=No   NumSegments=0   MaxLength=0   MaxDegrees=0
   Frame=8   AutoMesh=Yes   AtJoints=Yes   AtFrames=No   NumSegments=0   MaxLength=0   MaxDegrees=0
   Frame=9   AutoMesh=Yes   AtJoints=Yes   AtFrames=No   NumSegments=0   MaxLength=0   MaxDegrees=0
   Frame=64   AutoMesh=Yes   AtJoints=Yes   AtFrames=No   NumSegments=0   MaxLength=0   MaxDegrees=0
   Frame=65   AutoMesh=Yes   AtJoints=Yes   AtFrames=No   NumSegments=0   MaxLength=0   MaxDegrees=0
   Frame=66   AutoMesh=Yes   AtJoints=Yes   AtFrames=No   NumSegments=0   MaxLength=0   MaxDegrees=0
   Frame=67   AutoMesh=Yes   AtJoints=Yes   AtFrames=No   NumSegments=0   MaxLength=0   MaxDegrees=0
   Frame=68   AutoMesh=Yes   AtJoints=Yes   AtFrames=No   NumSegments=0   MaxLength=0   MaxDegrees=0
   Frame=69   AutoMesh=Yes   AtJoints=Yes   AtFrames=No   NumSegments=0   MaxLength=0   MaxDegrees=0
   Frame=70   AutoMesh=Yes   AtJoints=Yes   AtFrames=No   NumSegments=0   MaxLength=0   MaxDegrees=0
   Frame=71   AutoMesh=Yes   AtJoints=Yes   AtFrames=No   NumSegments=0   MaxLength=0   MaxDegrees=0
   Frame=72   AutoMesh=Yes   AtJoints=Yes   AtFrames=No   NumSegments=0   MaxLength=0   MaxDegrees=0
   Frame=73   AutoMesh=Yes   AtJoints=Yes   AtFrames=No   NumSegments=0   MaxLength=0   MaxDegrees=0
   Frame=74   AutoMesh=Yes   AtJoints=Yes   AtFrames=No   NumSegments=0   MaxLength=0   MaxDegrees=0
# ... 73 like lines cut
 
TABLE:  "FRAME DESIGN PROCEDURES"
   Frame=1   DesignProc="From Material"
   Frame=2   DesignProc="From Material"
   Frame=3   DesignProc="From Material"
   Frame=4   DesignProc="From Material"
   Frame=5   DesignProc="From Material"
   Frame=6   DesignProc="From Material"
   Frame=7   DesignProc="From Material"
   Frame=8   DesignProc="From Material"
   Frame=9   DesignProc="From Material"
   Frame=64   DesignProc="From Material"
   Frame=65   DesignProc="From Material"
   Frame=66   DesignProc="From Material"
   Frame=67   DesignProc="From Material"
   Frame=68   DesignProc="From Material"
   Frame=69   DesignProc="From Material"
   Frame=70   DesignProc="From Material"
   Frame=71   DesignProc="From Material"
   Frame=72   DesignProc="From Material"
   Frame=73   DesignProc="From Material"
   Frame=74   DesignProc="From Material"
# ... 73 like lines cut
 
TABLE:  "FRAME LOAD TRANSFER OPTIONS"
   Frame=1   Transfer=Yes
   Frame=2   Transfer=Yes
   Frame=3   Transfer=Yes
   Frame=4   Transfer=Yes
   Frame=5   Transfer=Yes
   Frame=6   Transfer=Yes
   Frame=7   Transfer=Yes
   Frame=8   Transfer=Yes
   Frame=9   Transfer=Yes
   Frame=64   Transfer=Yes
   Frame=65   Transfer=Yes
   Frame=66   Transfer=Yes
   Frame=67   Transfer=Yes
   Frame=68   Transfer=Yes
   Frame=69   Transfer=Yes
   Frame=70   Transfer=Yes
   Frame=71   Transfer=Yes
   Frame=72   Transfer=Yes
   Frame=73   Transfer=Yes
   Frame=74   Transfer=Yes
# ... 73 like lines cut
 
TABLE:  "FRAME LOCAL AXES ASSIGNMENTS 1 - TYPICAL"
   Frame=1   Angle=90
   Frame=5   Angle=90
   Frame=64   Angle=90
   Frame=68   Angle=90
   Frame=73   Angle=90
   Frame=77   Angle=90
   Frame=82   Angle=90
   Frame=86   Angle=90
   Frame=91   Angle=90
   Frame=95   Angle=90
   Frame=100   Angle=90
   Frame=104   Angle=90
   Frame=109   Angle=90
   Frame=113   Angle=90
 
TABLE:  "FRAME OUTPUT STATION ASSIGNMENTS"
   Frame=1   StationType=MinNumSta   MinNumSta=3   AddAtElmInt=Yes   AddAtPtLoad=Yes
   Frame=2   StationType=MinNumSta   MinNumSta=3   AddAtElmInt=Yes   AddAtPtLoad=Yes
   Frame=3   StationType=MinNumSta   MinNumSta=3   AddAtElmInt=Yes   AddAtPtLoad=Yes
   Frame=4   StationType=MinNumSta   MinNumSta=3   AddAtElmInt=Yes   AddAtPtLoad=Yes
   Frame=5   StationType=MinNumSta   MinNumSta=3   AddAtElmInt=Yes   AddAtPtLoad=Yes
   Frame=6   StationType=MaxStaSpcg   MaxStaSpcg=24   AddAtElmInt=Yes   AddAtPtLoad=Yes
   Frame=7   StationType=MaxStaSpcg   MaxStaSpcg=24   AddAtElmInt=Yes   AddAtPtLoad=Yes
   Frame=8   StationType=MaxStaSpcg   MaxStaSpcg=24   AddAtElmInt=Yes   AddAtPtLoad=Yes
   Frame=9   StationType=MaxStaSpcg   MaxStaSpcg=24   AddAtElmInt=Yes   AddAtPtLoad=Yes
   Frame=64   StationType=MinNumSta   MinNumSta=3   AddAtElmInt=Yes   AddAtPtLoad=Yes
   Frame=65   StationType=MinNumSta   MinNumSta=3   AddAtElmInt=Yes   AddAtPtLoad=Yes
   Frame=66   StationType=MinNumSta   MinNumSta=3   AddAtElmInt=Yes   AddAtPtLoad=Yes
   Frame=67   StationType=MinNumSta   MinNumSta=3   AddAtElmInt=Yes   AddAtPtLoad=Yes
   Frame=68   StationType=MinNumSta   MinNumSta=3   AddAtElmInt=Yes   AddAtPtLoad=Yes
   Frame=69   StationType=MaxStaSpcg   MaxStaSpcg=24   AddAtElmInt=Yes   AddAtPtLoad=Yes
   Frame=70   StationType=MaxStaSpcg   MaxStaSpcg=24   AddAtElmInt=Yes   AddAtPtLoad=Yes
   Frame=71   StationType=MaxStaSpcg   MaxStaSpcg=24   AddAtElmInt=Yes   AddAtPtLoad=Yes
   Frame=72   StationType=MaxStaSpcg   MaxStaSpcg=24   AddAtElmInt=Yes   AddAtPtLoad=Yes
   Frame=73   StationType=MinNumSta   MinNumSta=3   AddAtElmInt=Yes   AddAtPtLoad=Yes
   Frame=74   StationType=MinNumSta   MinNumSta=3   AddAtElmInt=Yes   AddAtPtLoad=Yes
   Frame=75   StationType=MinNumSta   MinNumSta=3   AddAtElmInt=Yes   AddAtPtLoad=Yes
   Frame=76   StationType=MinNumSta   MinNumSta=3   AddAtElmInt=Yes   AddAtPtLoad=Yes
   Frame=77   StationType=MinNumSta   MinNumSta=3   AddAtElmInt=Yes   AddAtPtLoad=Yes
   Frame=78   StationType=MaxStaSpcg   MaxStaSpcg=24   AddAtElmInt=Yes   AddAtPtLoad=Yes
   Frame=79   StationType=MaxStaSpcg   MaxStaSpcg=24   AddAtElmInt=Yes   AddAtPtLoad=Yes
   Frame=80   StationType=MaxStaSpcg   MaxStaSpcg=24   AddAtElmInt=Yes   AddAtPtLoad=Yes
   Frame=81   StationType=MaxStaSpcg   MaxStaSpcg=24   AddAtElmInt=Yes   AddAtPtLoad=Yes
   Frame=82   StationType=MinNumSta   MinNumSta=3   AddAtElmInt=Yes   AddAtPtLoad=Yes
   Frame=83   StationType=MinNumSta   MinNumSta=3   AddAtElmInt=Yes   AddAtPtLoad=Yes
   Frame=84   StationType=MinNumSta   MinNumSta=3   AddAtElmInt=Yes   AddAtPtLoad=Yes
   Frame=85   StationType=MinNumSta   MinNumSta=3   AddAtElmInt=Yes   AddAtPtLoad=Yes
   Frame=86   StationType=MinNumSta   MinNumSta=3   AddAtElmInt=Yes   AddAtPtLoad=Yes
   Frame=87   StationType=MaxStaSpcg   MaxStaSpcg=24   AddAtElmInt=Yes   AddAtPtLoad=Yes
   Frame=88   StationType=MaxStaSpcg   MaxStaSpcg=24   AddAtElmInt=Yes   AddAtPtLoad=Yes
   Frame=89   StationType=MaxStaSpcg   MaxStaSpcg=24   AddAtElmInt=Yes   AddAtPtLoad=Yes
   Frame=90   StationType=MaxStaSpcg   MaxStaSpcg=24   AddAtElmInt=Yes   AddAtPtLoad=Yes
   Frame=91   StationType=MinNumSta   MinNumSta=3   AddAtElmInt=Yes   AddAtPtLoad=Yes
   Frame=92   StationType=MinNumSta   MinNumSta=3   AddAtElmInt=Yes   AddAtPtLoad=Yes
   Frame=93   StationType=MinNumSta   MinNumSta=3   AddAtElmInt=Yes   AddAtPtLoad=Yes
   Frame=94   StationType=MinNumSta   MinNumSta=3   AddAtElmInt=Yes   AddAtPtLoad=Yes
   Frame=95   StationType=MinNumSta   MinNumSta=3   AddAtElmInt=Yes   AddAtPtLoad=Yes
   Frame=96   StationType=MaxStaSpcg   MaxStaSpcg=24   AddAtElmInt=Yes   AddAtPtLoad=Yes
   Frame=97   StationType=MaxStaSpcg   MaxStaSpcg=24   AddAtElmInt=Yes   AddAtPtLoad=Yes
   Frame=98   StationType=MaxStaSpcg   MaxStaSpcg=24   AddAtElmInt=Yes   AddAtPtLoad=Yes
   Frame=99   StationType=MaxStaSpcg   MaxStaSpcg=24   AddAtElmInt=Yes   AddAtPtLoad=Yes
   Frame=100   StationType=MinNumSta   MinNumSta=3   AddAtElmInt=Yes   AddAtPtLoad=Yes
   Frame=101   StationType=MinNumSta   MinNumSta=3   AddAtElmInt=Yes   AddAtPtLoad=Yes
   Frame=102   StationType=MinNumSta   MinNumSta=3   AddAtElmInt=Yes   AddAtPtLoad=Yes
   Frame=103   StationType=MinNumSta   MinNumSta=3   AddAtElmInt=Yes   AddAtPtLoad=Yes
   Frame=104   StationType=MinNumSta   MinNumSta=3   AddAtElmInt=Yes   AddAtPtLoad=Yes
   Frame=105   StationType=MaxStaSpcg   MaxStaSpcg=24   AddAtElmInt=Yes   AddAtPtLoad=Yes
   Frame=106   StationType=MaxStaSpcg   MaxStaSpcg=24   AddAtElmInt=Yes   AddAtPtLoad=Yes
   Frame=107   StationType=MaxStaSpcg   MaxStaSpcg=24   AddAtElmInt=Yes   AddAtPtLoad=Yes
   Frame=108   StationType=MaxStaSpcg   MaxStaSpcg=24   AddAtElmInt=Yes   AddAtPtLoad=Yes
   Frame=109   StationType=MinNumSta   MinNumSta=3   AddAtElmInt=Yes   AddAtPtLoad=Yes
   Frame=110   StationType=MinNumSta   MinNumSta=3   AddAtElmInt=Yes   AddAtPtLoad=Yes
   Frame=111   StationType=MinNumSta   MinNumSta=3   AddAtElmInt=Yes   AddAtPtLoad=Yes
   Frame=112   StationType=MinNumSta   MinNumSta=3   AddAtElmInt=Yes   AddAtPtLoad=Yes
   Frame=113   StationType=MinNumSta   MinNumSta=3   AddAtElmInt=Yes   AddAtPtLoad=Yes
   Frame=114   StationType=MaxStaSpcg   MaxStaSpcg=24   AddAtElmInt=Yes   AddAtPtLoad=Yes
   Frame=115   StationType=MaxStaSpcg   MaxStaSpcg=24   AddAtElmInt=Yes   AddAtPtLoad=Yes
   Frame=116   StationType=MaxStaSpcg   MaxStaSpcg=24   AddAtElmInt=Yes   AddAtPtLoad=Yes
   Frame=117   StationType=MaxStaSpcg   MaxStaSpcg=24   AddAtElmInt=Yes   AddAtPtLoad=Yes
   Frame=119   StationType=MaxStaSpcg   MaxStaSpcg=24   AddAtElmInt=Yes   AddAtPtLoad=Yes
   Frame=120   StationType=MaxStaSpcg   MaxStaSpcg=24   AddAtElmInt=Yes   AddAtPtLoad=Yes
   Frame=121   StationType=MaxStaSpcg   MaxStaSpcg=24   AddAtElmInt=Yes   AddAtPtLoad=Yes
   Frame=122   StationType=MaxStaSpcg   MaxStaSpcg=24   AddAtElmInt=Yes   AddAtPtLoad=Yes
   Frame=123   StationType=MaxStaSpcg   MaxStaSpcg=24   AddAtElmInt=Yes   AddAtPtLoad=Yes
   Frame=124   StationType=MaxStaSpcg   MaxStaSpcg=24   AddAtElmInt=Yes   AddAtPtLoad=Yes
   Frame=125   StationType=MaxStaSpcg   MaxStaSpcg=24   AddAtElmInt=Yes   AddAtPtLoad=Yes
   Frame=126   StationType=MaxStaSpcg   MaxStaSpcg=24   AddAtElmInt=Yes   AddAtPtLoad=Yes
   Frame=127   StationType=MaxStaSpcg   MaxStaSpcg=24   AddAtElmInt=Yes   AddAtPtLoad=Yes
   Frame=128   StationType=MaxStaSpcg   MaxStaSpcg=24   AddAtElmInt=Yes   AddAtPtLoad=Yes
   Frame=129   StationType=MaxStaSpcg   MaxStaSpcg=24   AddAtElmInt=Yes   AddAtPtLoad=Yes
   Frame=130   StationType=MaxStaSpcg   MaxStaSpcg=24   AddAtElmInt=Yes   AddAtPtLoad=Yes
   Frame=131   StationType=MaxStaSpcg   MaxStaSpcg=24   AddAtElmInt=Yes   AddAtPtLoad=Yes
   Frame=132   StationType=MaxStaSpcg   MaxStaSpcg=24   AddAtElmInt=Yes   AddAtPtLoad=Yes
   Frame=133   StationType=MaxStaSpcg   MaxStaSpcg=24   AddAtElmInt=Yes   AddAtPtLoad=Yes
   Frame=134   StationType=MaxStaSpcg   MaxStaSpcg=24   AddAtElmInt=Yes   AddAtPtLoad=Yes
# ... 14 like lines cut
 
TABLE:  "FRAME SECTION ASSIGNMENTS"
   Frame=1   AutoSelect=N.A.   AnalSect=W14X342   MatProp=Default
   Frame=2   AutoSelect=N.A.   AnalSect=W14X398   MatProp=Default
   Frame=3   AutoSelect=N.A.   AnalSect=W14X398   MatProp=Default
   Frame=4   AutoSelect=N.A.   AnalSect=W14X398   MatProp=Default
   Frame=5   AutoSelect=N.A.   AnalSect=W14X342   MatProp=Default
   Frame=6   AutoSelect=N.A.   AnalSect=W33X141   MatProp=Default
   Frame=7   AutoSelect=N.A.   AnalSect=W33X141   MatProp=Default
   Frame=8   AutoSelect=N.A.   AnalSect=W33X141   MatProp=Default
   Frame=9   AutoSelect=N.A.   AnalSect=W33X141   MatProp=Default
   Frame=64   AutoSelect=N.A.   AnalSect=W14X342   MatProp=Default
   Frame=65   AutoSelect=N.A.   AnalSect=W14X398   MatProp=Default
   Frame=66   AutoSelect=N.A.   AnalSect=W14X398   MatProp=Default
   Frame=67   AutoSelect=N.A.   AnalSect=W14X398   MatProp=Default
   Frame=68   AutoSelect=N.A.   AnalSect=W14X342   MatProp=Default
   Frame=69   AutoSelect=N.A.   AnalSect=W33X141   MatProp=Default
   Frame=70   AutoSelect=N.A.   AnalSect=W33X141   MatProp=Default
   Frame=71   AutoSelect=N.A.   AnalSect=W33X141   MatProp=Default
   Frame=72   AutoSelect=N.A.   AnalSect=W33X141   MatProp=Default
   Frame=73   AutoSelect=N.A.   AnalSect=W14X342   MatProp=Default
   Frame=74   AutoSelect=N.A.   AnalSect=W14X398   MatProp=Default
# ... 73 like lines cut
 
TABLE:  "FRAME SECTION PROPERTIES 01 - GENERAL"
   SectionName=FSEC1   Material=A992Fy50   Shape="I/Wide Flange"   t3=12   t2=5   tf=0.38   tw=0.25   t2b=5   tfb=0.38   Area=6.61   TorsConst=0.231870449633333   I33=157.902961333333   I22=7.93130208333333   I23=0   AS2=3 _
        AS3=3.16666666666667   S33=26.3171602222222   S22=3.17252083333333   Z33=29.9741   Z22=4.925625   R33=4.88758595009503   R22=1.09539692122433   Color=Red   FromFile=No   AMod=1   A2Mod=1   A3Mod=1   JMod=1   I2Mod=1   I3Mod=1 _
        MMod=1   WMod=1   Notes="Added 8/8/2018 4:55:42 PM"
   SectionName=W14X342   Material=A992Fy50   Shape="I/Wide Flange"   t3=17.5400009155273   t2=16.3600006103516   tf=2.47000002861023   tw=1.53999996185303   t2b=16.3600006103516   tfb=2.47000002861023   Area=101   TorsConst=178   I33=4900 _
        I22=1810   I23=0   AS2=27.011999130249   AS3=67.3489990234375   S33=558.722889878787   S22=221.271385387938   Z33=672   Z22=338   R33=6.96526033146992   R22=4.23329565223218   Color=Magenta   FromFile=Yes   AMod=1   A2Mod=1 _
        A3Mod=1   JMod=1   I2Mod=1   I3Mod=1   MMod=1   WMod=1   SectInFile=W14X342   FileName="c:\program files\computers and structures\sap2000 19\aisc.pro"   Notes="Imported 8/8/2018 4:59:46 PM from AISC.PRO"
   SectionName=W14X398   Material=A992Fy50   Shape="I/Wide Flange"   t3=18.2900009155273   t2=16.5900001525879   tf=2.84500002861023   tw=1.76999998092651   t2b=16.5900001525879   tfb=2.84500002861023   Area=117   TorsConst=273   I33=6000 _
        I22=2170   I23=0   AS2=32.3730010986328   AS3=78.6640014648438   S33=656.09619460503   S22=261.603373121308   Z33=801   Z22=402   R33=7.16114874039433   R22=4.30662379910395   Color=Gray8Dark   FromFile=Yes   AMod=1   A2Mod=1 _
        A3Mod=1   JMod=1   I2Mod=1   I3Mod=1   MMod=1   WMod=1   SectInFile=W14X398   FileName="c:\program files\computers and structures\sap2000 19\aisc.pro"   Notes="Imported 8/8/2018 5:03:13 PM from AISC.PRO"
   SectionName=W33X141   Material=A992Fy50   Shape="I/Wide Flange"   t3=33.2999992370605   t2=11.5349998474121   tf=0.959999978542328   tw=0.605000019073486   t2b=11.5349998474121   tfb=0.959999978542328   Area=41.5999984741211 _
        TorsConst=9.69999980926514   I33=7450   I22=246   I23=0   AS2=20.1469993591309   AS3=18.4559993743896   S33=447.447457698959   S22=42.6527964029736   Z33=514   Z22=66.9000015258789   R33=13.3823221090509   R22=2.43176103993917 _
        Color=Green   FromFile=Yes   AMod=1   A2Mod=1   A3Mod=1   JMod=1   I2Mod=1   I3Mod=1   MMod=1   WMod=1   SectInFile=W33X141   FileName="c:\program files\computers and structures\sap2000 19\aisc.pro"   Notes="Imported 8/8/2018 6:31:17 PM from AISC.PRO"
 
TABLE:  "FRAME SECTION PROPERTIES 13 - TIME DEPENDENT"
   SectionName=FSEC1   TypeSize=Auto   AutoSFSize=1
   SectionName=W14X342   TypeSize=Auto   AutoSFSize=1
   SectionName=W14X398   TypeSize=Auto   AutoSFSize=1
   SectionName=W33X141   TypeSize=Auto   AutoSFSize=1
 
TABLE:  "FUNCTION - PLOT FUNCTIONS"
   PlotFunc="Input Energy"   Type=Energy   Component=Input   Mode=All
 
TABLE:  "FUNCTION - POWER SPECTRAL DENSITY - USER"
   Name=UNIFPSD   Frequency=0   Value=1
   Name=UNIFPSD   Frequency=1   Value=1
 
TABLE:  "FUNCTION - RESPONSE SPECTRUM - USER"
   Name=UNIFRS   Period=0   Accel=1   FuncDamp=0.05
   Name=UNIFRS   Period=1   Accel=1
 
TABLE:  "FUNCTION - STEADY STATE - USER"
   Name=UNIFSS   Frequency=0   Value=1
   Name=UNIFSS   Frequency=1   Value=1
 
TABLE:  "FUNCTION - TIME HISTORY - USER"
   Name=RAMPTH   Time=0   Value=0
   Name=RAMPTH   Time=1   Value=1
   Name=RAMPTH   Time=4   Value=1
   Name=UNIFTH   Time=0   Value=1
   Name=UNIFTH   Time=1   Value=1
 
TABLE:  "GRID LINES"
   CoordSys=GLOBAL   AxisDir=X   GridID=A   XRYZCoord=-720   LineType=Primary   LineColor=Gray8Dark   Visible=Yes   BubbleLoc=End   AllVisible=Yes   BubbleSize=90
   CoordSys=GLOBAL   AxisDir=X   GridID=B   XRYZCoord=-360   LineType=Primary   LineColor=Gray8Dark   Visible=Yes   BubbleLoc=End
   CoordSys=GLOBAL   AxisDir=X   GridID=C   XRYZCoord=0   LineType=Primary   LineColor=Gray8Dark   Visible=Yes   BubbleLoc=End
   CoordSys=GLOBAL   AxisDir=X   GridID=D   XRYZCoord=360   LineType=Primary   LineColor=Gray8Dark   Visible=Yes   BubbleLoc=End
   CoordSys=GLOBAL   AxisDir=X   GridID=E   XRYZCoord=720   LineType=Primary   LineColor=Gray8Dark   Visible=Yes   BubbleLoc=End
   CoordSys=GLOBAL   AxisDir=Y   GridID=1   XRYZCoord=0   LineType=Primary   LineColor=Gray8Dark   Visible=Yes   BubbleLoc=Start
   CoordSys=GLOBAL   AxisDir=Z   GridID=Z1   XRYZCoord=0   LineType=Primary   LineColor=Gray8Dark   Visible=Yes   BubbleLoc=End
   CoordSys=GLOBAL   AxisDir=Z   GridID=Z2   XRYZCoord=156   LineType=Primary   LineColor=Gray8Dark   Visible=Yes   BubbleLoc=End
 
TABLE:  "GROUPS 1 - DEFINITIONS"
   GroupName=ALL   Selection=Yes   SectionCut=Yes   Steel=Yes   Concrete=Yes   Aluminum=Yes   ColdFormed=Yes   Stage=Yes   Bridge=Yes   AutoSeismic=No   AutoWind=No   SelDesSteel=No   SelDesAlum=No   SelDesCold=No   MassWeight=Yes   Color=Red
 
TABLE:  "JOINT COORDINATES"
   Joint=1   CoordSys=GLOBAL   CoordType=Cartesian   XorR=-720   Y=0   Z=0   SpecialJt=No   GUID=97627245-5501-43b2-b1c0-a17ef5756d39
   Joint=2   CoordSys=GLOBAL   CoordType=Cartesian   XorR=-720   Y=0   Z=156   SpecialJt=No   GUID=b58734de-6350-4d30-8cee-8c95da0bbedb
   Joint=3   CoordSys=GLOBAL   CoordType=Cartesian   XorR=-360   Y=0   Z=0   SpecialJt=No   GUID=bb7da925-91ac-4c2c-8903-8a9ce22adab0
   Joint=4   CoordSys=GLOBAL   CoordType=Cartesian   XorR=-360   Y=0   Z=156   SpecialJt=No   GUID=5546eaad-a632-4ef6-b54d-bbb8dee1ae17
   Joint=5   CoordSys=GLOBAL   CoordType=Cartesian   XorR=0   Y=0   Z=0   SpecialJt=No   GUID=a3e8d384-cca4-49f7-a702-7dc4016430e3
   Joint=6   CoordSys=GLOBAL   CoordType=Cartesian   XorR=0   Y=0   Z=156   SpecialJt=No   GUID=c4fb40f6-eec3-4fc9-8abb-def4a6f94872
   Joint=7   CoordSys=GLOBAL   CoordType=Cartesian   XorR=360   Y=0   Z=0   SpecialJt=No   GUID=da74d58c-6b20-436b-83ff-4b00c6b159ff
   Joint=8   CoordSys=GLOBAL   CoordType=Cartesian   XorR=360   Y=0   Z=156   SpecialJt=No   GUID=6f8e02bf-b0ee-4d7e-97da-fd9a59c7f3ba
   Joint=9   CoordSys=GLOBAL   CoordType=Cartesian   XorR=720   Y=0   Z=0   SpecialJt=No   GUID=fda36b8c-73af-46b6-bc47-5001fbaeb553
   Joint=10   CoordSys=GLOBAL   CoordType=Cartesian   XorR=720   Y=0   Z=156   SpecialJt=No   GUID=d79b044b-7a88-459f-b813-a594bc04ceb2
   Joint=23   CoordSys=GLOBAL   CoordType=Cartesian   XorR=-720   Y=360   Z=0   SpecialJt=No   GUID=b7de193d-9e89-4eae-8f92-f96df06bb6d6
   Joint=24   CoordSys=GLOBAL   CoordType=Cartesian   XorR=-720   Y=360   Z=156   SpecialJt=No   GUID=eccd5d6d-c801-40e5-9060-639f92f063d6
   Joint=25   CoordSys=GLOBAL   CoordType=Cartesian   XorR=-360   Y=360   Z=0   SpecialJt=No   GUID=bcfa182f-a44a-4ff7-91aa-76a6f739838a
   Joint=26   CoordSys=GLOBAL   CoordType=Cartesian   XorR=-360   Y=360   Z=156   SpecialJt=No   GUID=e8f41795-3399-471e-8682-44e085a7ce0a
   Joint=27   CoordSys=GLOBAL   CoordType=Cartesian   XorR=0   Y=360   Z=0   SpecialJt=No   GUID=bea61809-4c3a-4f60-91b6-7f191fb83753
   Joint=28   CoordSys=GLOBAL   CoordType=Cartesian   XorR=0   Y=360   Z=156   SpecialJt=No   GUID=4cb1c9f3-6c2d-4fa9-bf91-ce58a809955c
   Joint=29   CoordSys=GLOBAL   CoordType=Cartesian   XorR=360   Y=360   Z=0   SpecialJt=No   GUID=e2a3ea64-9cf3-4bc1-bf3a-0f43298a7e54
   Joint=30   CoordSys=GLOBAL   CoordType=Cartesian   XorR=360   Y=360   Z=156   SpecialJt=No   GUID=afd2ccb2-db20-4a9b-8a61-bafd1c8e467e
   Joint=31   CoordSys=GLOBAL   CoordType=Cartesian   XorR=720   Y=360   Z=0   SpecialJt=No   GUID=d465373f-fc3f-4f7c-881d-ad4569d87c8e
   Joint=32   CoordSys=GLOBAL   CoordType=Cartesian   XorR=720   Y=360   Z=156   SpecialJt=No   GUID=09e66141-95c3-43a1-8782-68a50ff66169
   Joint=33   CoordSys=GLOBAL   CoordType=Cartesian   XorR=-720   Y=720   Z=0   SpecialJt=No   GUID=5d288856-1485-46ee-a65c-89402b55cd63
   Joint=34   CoordSys=GLOBAL   CoordType=Cartesian   XorR=-720   Y=720   Z=156   SpecialJt=No   GUID=6f4886b6-d66b-4f77-94d2-47bb55fef145
   Joint=35   CoordSys=GLOBAL   CoordType=Cartesian   XorR=-360   Y=720   Z=0   SpecialJt=No   GUID=57c61ca8-a47e-407a-9e6f-af9721df259f
   Joint=36   CoordSys=GLOBAL   CoordType=Cartesian   XorR=-360   Y=720   Z=156   SpecialJt=No   GUID=3165012a-639f-43fc-9cea-27eeb5210bca
   Joint=37   CoordSys=GLOBAL   CoordType=Cartesian   XorR=0   Y=720   Z=0   SpecialJt=No   GUID=0a2c7a57-7417-4519-918f-63f6f3b5115e
   Joint=38   CoordSys=GLOBAL   CoordType=Cartesian   XorR=0   Y=720   Z=156   SpecialJt=No   GUID=a7eee014-0a6c-4880-ae8f-50790f8bbebc
   Joint=39   CoordSys=GLOBAL   CoordType=Cartesian   XorR=360   Y=720   Z=0   SpecialJt=No   GUID=480c4afb-a746-4686-b63f-23a379f8f3c5
   Joint=40   CoordSys=GLOBAL   CoordType=Cartesian   XorR=360   Y=720   Z=156   SpecialJt=No   GUID=ed2ba2bb-ab88-468f-8d35-6eb1dfa370a6
   Joint=41   CoordSys=GLOBAL   CoordType=Cartesian   XorR=720   Y=720   Z=0   SpecialJt=No   GUID=a7d7019e-caaf-47b7-931b-5cdd0d2301c3
   Joint=42   CoordSys=GLOBAL   CoordType=Cartesian   XorR=720   Y=720   Z=156   SpecialJt=No   GUID=142c8f64-1dae-42ee-bd31-4758a3f8cd3d
   Joint=43   CoordSys=GLOBAL   CoordType=Cartesian   XorR=-720   Y=1080   Z=0   SpecialJt=No   GUID=3162411a-2337-4fd2-a96d-381c54d04e42
   Joint=44   CoordSys=GLOBAL   CoordType=Cartesian   XorR=-720   Y=1080   Z=156   SpecialJt=No   GUID=830e5ffb-bdfd-4afd-8016-9d7c73e9e5bd
   Joint=45   CoordSys=GLOBAL   CoordType=Cartesian   XorR=-360   Y=1080   Z=0   SpecialJt=No   GUID=a3a7b4a1-1b37-48a6-936a-448c01e50f48
   Joint=46   CoordSys=GLOBAL   CoordType=Cartesian   XorR=-360   Y=1080   Z=156   SpecialJt=No   GUID=27500176-071f-422e-bbaa-a27d70538941
   Joint=47   CoordSys=GLOBAL   CoordType=Cartesian   XorR=0   Y=1080   Z=0   SpecialJt=No   GUID=eb0182b2-369c-47fb-9143-318c144d8796
   Joint=48   CoordSys=GLOBAL   CoordType=Cartesian   XorR=0   Y=1080   Z=156   SpecialJt=No   GUID=f7165077-a3ff-4d04-995d-1d712abb9b29
   Joint=49   CoordSys=GLOBAL   CoordType=Cartesian   XorR=360   Y=1080   Z=0   SpecialJt=No   GUID=690c41a6-233b-4cf3-a981-1a274fec090a
   Joint=50   CoordSys=GLOBAL   CoordType=Cartesian   XorR=360   Y=1080   Z=156   SpecialJt=No   GUID=22e998da-7d82-47ff-a339-f194705b8806
   Joint=51   CoordSys=GLOBAL   CoordType=Cartesian   XorR=720   Y=1080   Z=0   SpecialJt=No   GUID=1a3ee8fb-b24d-4a40-813b-e157a6df96fc
   Joint=52   CoordSys=GLOBAL   CoordType=Cartesian   XorR=720   Y=1080   Z=156   SpecialJt=No   GUID=2837d571-ef2d-4b95-aeff-52a848c69839
   Joint=53   CoordSys=GLOBAL   CoordType=Cartesian   XorR=-720   Y=1440   Z=0   SpecialJt=No   GUID=b3694445-f06a-4cdb-bbca-8de23ffe4a71
   Joint=54   CoordSys=GLOBAL   CoordType=Cartesian   XorR=-720   Y=1440   Z=156   SpecialJt=No   GUID=985c04ce-f25e-4a2d-b42b-608d157a28c3
   Joint=55   CoordSys=GLOBAL   CoordType=Cartesian   XorR=-360   Y=1440   Z=0   SpecialJt=No   GUID=83998418-5efa-4c06-a23d-2009f0f84b27
   Joint=56   CoordSys=GLOBAL   CoordType=Cartesian   XorR=-360   Y=1440   Z=156   SpecialJt=No   GUID=a200db2f-2c8f-48e4-9322-0fd341700d00
   Joint=57   CoordSys=GLOBAL   CoordType=Cartesian   XorR=0   Y=1440   Z=0   SpecialJt=No   GUID=d350252a-6adb-4c2c-9178-dfa5beef1137
   Joint=58   CoordSys=GLOBAL   CoordType=Cartesian   XorR=0   Y=1440   Z=156   SpecialJt=No   GUID=6b48bc30-8dd2-461b-b65c-564f3e490f8f
   Joint=59   CoordSys=GLOBAL   CoordType=Cartesian   XorR=360   Y=1440   Z=0   SpecialJt=No   GUID=5ad962f9-4bcd-4a4a-9d38-6c1105188f11
   Joint=60   CoordSys=GLOBAL   CoordType=Cartesian   XorR=360   Y=1440   Z=156   SpecialJt=No   GUID=2dde1da3-835a-452c-97fc-a1a30e1c7423
   Joint=61   CoordSys=GLOBAL   CoordType=Cartesian   XorR=720   Y=1440   Z=0   SpecialJt=No   GUID=aab68dc3-659c-49e1-8932-e9f7910ea483
   Joint=62   CoordSys=GLOBAL   CoordType=Cartesian   XorR=720   Y=1440   Z=156   SpecialJt=No   GUID=cb9d08b3-e924-4e22-a63b-56ef769be5c1
   Joint=63   CoordSys=GLOBAL   CoordType=Cartesian   XorR=-720   Y=1800   Z=0   SpecialJt=No   GUID=c74c9c76-8ddb-444d-98a9-0e364464ded7
   Joint=64   CoordSys=GLOBAL   CoordType=Cartesian   XorR=-720   Y=1800   Z=156   SpecialJt=No   GUID=1afbee9f-61eb-485a-9666-65cd744947fa
   Joint=65   CoordSys=GLOBAL   CoordType=Cartesian   XorR=-360   Y=1800   Z=0   SpecialJt=No   GUID=74a62fbf-d7ce-440c-a83f-86347c59c75f
   Joint=66   CoordSys=GLOBAL   CoordType=Cartesian   XorR=-360   Y=1800   Z=156   SpecialJt=No   GUID=b0ce2131-79ba-437b-aee2-02193f9b4d36
   Joint=67   CoordSys=GLOBAL   CoordType=Cartesian   XorR=0   Y=1800   Z=0   SpecialJt=No   GUID=87957e6e-f91a-4227-825d-ff30b9f72211
   Joint=68   CoordSys=GLOBAL   CoordType=Cartesian   XorR=0   Y=1800   Z=156   SpecialJt=No   GUID=3259ddc6-2218-4a10-ac9c-c04e76d09a29
   Joint=69   CoordSys=GLOBAL   CoordType=Cartesian   XorR=360   Y=1800   Z=0   SpecialJt=No   GUID=cd5e7194-3291-43ef-bf7c-2d9e72df075c
   Joint=70   CoordSys=GLOBAL   CoordType=Cartesian   XorR=360   Y=1800   Z=156   SpecialJt=No   GUID=70c6000c-467d-490b-9dc7-f721ba0bf8cf
   Joint=71   CoordSys=GLOBAL   CoordType=Cartesian   XorR=720   Y=1800   Z=0   SpecialJt=No   GUID=ca3cb761-66c0-4e25-809e-23fb2ef0002f
   Joint=72   CoordSys=GLOBAL   CoordType=Cartesian   XorR=720   Y=1800   Z=156   SpecialJt=No   GUID=2f59f1f1-5cad-4026-a64e-e32e33831cf6
   Joint=73   CoordSys=GLOBAL   CoordType=Cartesian   XorR=-720   Y=2160   Z=0   SpecialJt=No   GUID=b811643d-c2fe-4416-bb08-4f2e925f9fe7
   Joint=74   CoordSys=GLOBAL   CoordType=Cartesian   XorR=-720   Y=2160   Z=156   SpecialJt=No   GUID=7742124f-69fa-4f9b-b106-c6b85f241555
   Joint=75   CoordSys=GLOBAL   CoordType=Cartesian   XorR=-360   Y=2160   Z=0   SpecialJt=No   GUID=46264975-3d24-4fe5-a6f1-8b31fdcc922e
   Joint=76   CoordSys=GLOBAL   CoordType=Cartesian   XorR=-360   Y=2160   Z=156   SpecialJt=No   GUID=00ee811c-c98b-4797-964c-446d22b5aa2a
   Joint=77   CoordSys=GLOBAL   CoordType=Cartesian   XorR=0   Y=2160   Z=0   SpecialJt=No   GUID=143f2e32-a1cd-44e6-adcc-018984c9d73f
   Joint=78   CoordSys=GLOBAL   CoordType=Cartesian   XorR=0   Y=2160   Z=156   SpecialJt=No   GUID=68072fef-ac91-4768-8b56-99f0a2d0d52a
   Joint=79   CoordSys=GLOBAL   CoordType=Cartesian   XorR=360   Y=2160   Z=0   SpecialJt=No   GUID=2d38eebe-093f-4cf9-9d8e-4772958b6db0
   Joint=80   CoordSys=GLOBAL   CoordType=Cartesian   XorR=360   Y=2160   Z=156   SpecialJt=No   GUID=4fbf97ff-68d0-44ae-9065-141ccdb6e6a3
   Joint=81   CoordSys=GLOBAL   CoordType=Cartesian   XorR=720   Y=2160   Z=0   SpecialJt=No   GUID=51bfca4d-778c-47c3-ae97-ac2910e5cfc3
   Joint=82   CoordSys=GLOBAL   CoordType=Cartesian   XorR=720   Y=2160   Z=156   SpecialJt=No   GUID=7c535dbe-6ecb-4faa-b3ca-260a0248c8ee
 
TABLE:  "JOINT LOADS - FORCE"
   Joint=2   LoadPat=DEAD   CoordSys=GLOBAL   F1=1   F2=0   F3=0   M1=0   M2=0   M3=0   GUID=c7eec56a-05f4-43e0-924d-3ca172d3a278
   Joint=4   LoadPat=DEAD   CoordSys=GLOBAL   F1=1   F2=0   F3=0   M1=0   M2=0   M3=0   GUID=dbbe0443-8d83-4c82-86d5-9f9dcd685a3f
   Joint=6   LoadPat=DEAD   CoordSys=GLOBAL   F1=1   F2=0   F3=0   M1=0   M2=0   M3=0   GUID=dda80edc-8c8f-4d9c-b978-fb7da6492d5a
   Joint=8   LoadPat=DEAD   CoordSys=GLOBAL   F1=1   F2=0   F3=0   M1=0   M2=0   M3=0   GUID=89278595-2b09-4072-9c64-9c28ff8bd52e
   Joint=10   LoadPat=DEAD   CoordSys=GLOBAL   F1=1   F2=0   F3=0   M1=0   M2=0   M3=0   GUID=4456d05e-2e64-40d2-b3c3-f288da3aca50
   Joint=24   LoadPat=DEAD   CoordSys=GLOBAL   F1=1   F2=0   F3=0   M1=0   M2=0   M3=0   GUID=c7eec56a-05f4-43e0-924d-3ca172d3a278
   Joint=26   LoadPat=DEAD   CoordSys=GLOBAL   F1=1   F2=0   F3=0   M1=0   M2=0   M3=0   GUID=dbbe0443-8d83-4c82-86d5-9f9dcd685a3f
   Joint=28   LoadPat=DEAD   CoordSys=GLOBAL   F1=1   F2=0   F3=0   M1=0   M2=0   M3=0   GUID=dda80edc-8c8f-4d9c-b978-fb7da6492d5a
   Joint=30   LoadPat=DEAD   CoordSys=GLOBAL   F1=1   F2=0   F3=0   M1=0   M2=0   M3=0   GUID=89278595-2b09-4072-9c64-9c28ff8bd52e
   Joint=32   LoadPat=DEAD   CoordSys=GLOBAL   F1=1   F2=0   F3=0   M1=0   M2=0   M3=0   GUID=4456d05e-2e64-40d2-b3c3-f288da3aca50
   Joint=34   LoadPat=DEAD   CoordSys=GLOBAL   F1=1   F2=0   F3=0   M1=0   M2=0   M3=0   GUID=c7eec56a-05f4-43e0-924d-3ca172d3a278
   Joint=36   LoadPat=DEAD   CoordSys=GLOBAL   F1=1   F2=0   F3=0   M1=0   M2=0   M3=0   GUID=dbbe0443-8d83-4c82-86d5-9f9dcd685a3f
   Joint=38   LoadPat=DEAD   CoordSys=GLOBAL   F1=1   F2=0   F3=0   M1=0   M2=0   M3=0   GUID=dda80edc-8c8f-4d9c-b978-fb7da6492d5a
   Joint=40   LoadPat=DEAD   CoordSys=GLOBAL   F1=1   F2=0   F3=0   M1=0   M2=0   M3=0   GUID=89278595-2b09-4072-9c64-9c28ff8bd52e
   Joint=42   LoadPat=DEAD   CoordSys=GLOBAL   F1=1   F2=0   F3=0   M1=0   M2=0   M3=0   GUID=4456d05e-2e64-40d2-b3c3-f288da3aca50
   Joint=44   LoadPat=DEAD   CoordSys=GLOBAL   F1=1   F2=0   F3=0   M1=0   M2=0   M3=0   GUID=c7eec56a-05f4-43e0-924d-3ca172d3a278
   Joint=46   LoadPat=DEAD   CoordSys=GLOBAL   F1=1   F2=0   F3=0   M1=0   M2=0   M3=0   GUID=dbbe0443-8d83-4c82-86d5-9f9dcd685a3f
   Joint=48   LoadPat=DEAD   CoordSys=GLOBAL   F1=1   F2=0   F3=0   M1=0   M2=0   M3=0   GUID=dda80edc-8c8f-4d9c-b978-fb7da6492d5a
   Joint=50   LoadPat=DEAD   CoordSys=GLOBAL   F1=1   F2=0   F3=0   M1=0   M2=0   M3=0   GUID=89278595-2b09-4072-9c64-9c28ff8bd52e
   Joint=52   LoadPat=DEAD   CoordSys=GLOBAL   F1=1   F2=0   F3=0   M1=0   M2=0   M3=0   GUID=4456d05e-2e64-40d2-b3c3-f288da3aca50
   Joint=54   LoadPat=DEAD   CoordSys=GLOBAL   F1=1   F2=0   F3=0   M1=0   M2=0   M3=0   GUID=c7eec56a-05f4-43e0-924d-3ca172d3a278
   Joint=56   LoadPat=DEAD   CoordSys=GLOBAL   F1=1   F2=0   F3=0   M1=0   M2=0   M3=0   GUID=dbbe0443-8d83-4c82-86d5-9f9dcd685a3f
   Joint=58   LoadPat=DEAD   CoordSys=GLOBAL   F1=1   F2=0   F3=0   M1=0   M2=0   M3=0   GUID=dda80edc-8c8f-4d9c-b978-fb7da6492d5a
   Joint=60   LoadPat=DEAD   CoordSys=GLOBAL   F1=1   F2=0   F3=0   M1=0   M2=0   M3=0   GUID=89278595-2b09-4072-9c64-9c28ff8bd52e
   Joint=62   LoadPat=DEAD   CoordSys=GLOBAL   F1=1   F2=0   F3=0   M1=0   M2=0   M3=0   GUID=4456d05e-2e64-40d2-b3c3-f288da3aca50
   Joint=64   LoadPat=DEAD   CoordSys=GLOBAL   F1=1   F2=0   F3=0   M1=0   M2=0   M3=0   GUID=c7eec56a-05f4-43e0-924d-3ca172d3a278
   Joint=66   LoadPat=DEAD   CoordSys=GLOBAL   F1=1   F2=0   F3=0   M1=0   M2=0   M3=0   GUID=dbbe0443-8d83-4c82-86d5-9f9dcd685a3f
   Joint=68   LoadPat=DEAD   CoordSys=GLOBAL   F1=1   F2=0   F3=0   M1=0   M2=0   M3=0   GUID=dda80edc-8c8f-4d9c-b978-fb7da6492d5a
   Joint=70   LoadPat=DEAD   CoordSys=GLOBAL   F1=1   F2=0   F3=0   M1=0   M2=0   M3=0   GUID=89278595-2b09-4072-9c64-9c28ff8bd52e
   Joint=72   LoadPat=DEAD   CoordSys=GLOBAL   F1=1   F2=0   F3=0   M1=0   M2=0   M3=0   GUID=4456d05e-2e64-40d2-b3c3-f288da3aca50
   Joint=74   LoadPat=DEAD   CoordSys=GLOBAL   F1=1   F2=0   F3=0   M1=0   M2=0   M3=0   GUID=c7eec56a-05f4-43e0-924d-3ca172d3a278
   Joint=76   LoadPat=DEAD   CoordSys=GLOBAL   F1=1   F2=0   F3=0   M1=0   M2=0   M3=0   GUID=dbbe0443-8d83-4c82-86d5-9f9dcd685a3f
   Joint=78   LoadPat=DEAD   CoordSys=GLOBAL   F1=1   F2=0   F3=0   M1=0   M2=0   M3=0   GUID=dda80edc-8c8f-4d9c-b978-fb7da6492d5a
   Joint=80   LoadPat=DEAD   CoordSys=GLOBAL   F1=1   F2=0   F3=0   M1=0   M2=0   M3=0   GUID=89278595-2b09-4072-9c64-9c28ff8bd52e
   Joint=82   LoadPat=DEAD   CoordSys=GLOBAL   F1=1   F2=0   F3=0   M1=0   M2=0   M3=0   GUID=4456d05e-2e64-40d2-b3c3-f288da3aca50
 
TABLE:  "JOINT PATTERN DEFINITIONS"
   Pattern=Default
 
TABLE:  "JOINT RESTRAINT ASSIGNMENTS"
   Joint=1   U1=Yes   U2=Yes   U3=Yes   R1=Yes   R2=Yes   R3=Yes
   Joint=3   U1=Yes   U2=Yes   U3=Yes   R1=Yes   R2=Yes   R3=Yes
   Joint=5   U1=Yes   U2=Yes   U3=Yes   R1=Yes   R2=Yes   R3=Yes
   Joint=7   U1=Yes   U2=Yes   U3=Yes   R1=Yes   R2=Yes   R3=Yes
   Joint=9   U1=Yes   U2=Yes   U3=Yes   R1=Yes   R2=Yes   R3=Yes
   Joint=23   U1=Yes   U2=Yes   U3=Yes   R1=Yes   R2=Yes   R3=Yes
   Joint=25   U1=Yes   U2=Yes   U3=Yes   R1=Yes   R2=Yes   R3=Yes
   Joint=27   U1=Yes   U2=Yes   U3=Yes   R1=Yes   R2=Yes   R3=Yes
   Joint=29   U1=Yes   U2=Yes   U3=Yes   R1=Yes   R2=Yes   R3=Yes
   Joint=31   U1=Yes   U2=Yes   U3=Yes   R1=Yes   R2=Yes   R3=Yes
   Joint=33   U1=Yes   U2=Yes   U3=Yes   R1=Yes   R2=Yes   R3=Yes
   Joint=35   U1=Yes   U2=Yes   U3=Yes   R1=Yes   R2=Yes   R3=Yes
   Joint=37   U1=Yes   U2=Yes   U3=Yes   R1=Yes   R2=Yes   R3=Yes
   Joint=39   U1=Yes   U2=Yes   U3=Yes   R1=Yes   R2=Yes   R3=Yes
   Joint=41   U1=Yes   U2=Yes   U3=Yes   R1=Yes   R2=Yes   R3=Yes
   Joint=43   U1=Yes   U2=Yes   U3=Yes   R1=Yes   R2=Yes   R3=Yes
   Joint=45   U1=Yes   U2=Yes   U3=Yes   R1=Yes   R2=Yes   R3=Yes
   Joint=47   U1=Yes   U2=Yes   U3=Yes   R1=Yes   R2=Yes   R3=Yes
   Joint=49   U1=Yes   U2=Yes   U3=Yes   R1=Yes   R2=Yes   R3=Yes
   Joint=51   U1=Yes   U2=Yes   U3=Yes   R1=Yes   R2=Yes   R3=Yes
# ... 15 like lines cut
 
TABLE:  "LOAD CASE DEFINITIONS"
   Case=DEAD   Type=LinStatic   InitialCond=Zero   DesTypeOpt="Prog Det"   DesignType=Dead   DesActOpt="Prog Det"   DesignAct=Non-Composite   AutoType=None   RunCase=Yes   GUID=2c4103db-9dce-41d8-9e08-f29dc4bb8aa0
   Case=MODAL   Type=LinModal   InitialCond=Zero   DesTypeOpt="Prog Det"   DesignType=Other   DesActOpt="Prog Det"   DesignAct=Other   AutoType=None   RunCase=No   GUID=556073bd-5af4-4a5b-aa57-ed29e710cca2
 
TABLE:  "LOAD PATTERN DEFINITIONS"
   LoadPat=DEAD   DesignType=Dead   SelfWtMult=1   GUID=f12f631e-8ced-4b00-b68b-966953c9c82a
 
TABLE:  "MASS SOURCE"
   MassSource=MSSSRC1   Elements=Yes   Masses=Yes   Loads=No   IsDefault=Yes
 
TABLE:  "MATERIAL PROPERTIES 01 - GENERAL"
   Material=4000Psi   Type=Concrete   SymType=Isotropic   TempDepend=No   Color=Green   Notes="Customary f'c 4000 psi 8/8/2018 4:54:58 PM"
   Material=A992Fy50   Type=Steel   SymType=Isotropic   TempDepend=No   Color=Blue   Notes="ASTM A992 Grade 50 8/8/2018 4:54:58 PM"
 
TABLE:  "MATERIAL PROPERTIES 02 - BASIC MECHANICAL PROPERTIES"
   Material=4000Psi   UnitWeight=8.680555556E-05   UnitMass=2.248332521E-07   E1=3604.9965   G12=1502.081875   U12=0.2   A1=5.5E-06
   Material=A992Fy50   UnitWeight=0.000283564814814815   UnitMass=7.34455290352564E-07   E1=29000   G12=11153.8461538462   U12=0.3   A1=6.5E-06
 
TABLE:  "MATERIAL PROPERTIES 03A - STEEL DATA"
   Material=A992Fy50   Fy=50   Fu=65   EffFy=55   EffFu=71.5   SSCurveOpt=Simple   SSHysType=Kinematic   SHard=0.015   SMax=0.11   SRup=0.17   FinalSlope=-0.1
 
TABLE:  "MATERIAL PROPERTIES 03B - CONCRETE DATA"
   Material=4000Psi   Fc=4   eFc=4   LtWtConc=No   SSCurveOpt=Mander   SSHysType=Takeda   SFc=0.00221914   SCap=0.005   FinalSlope=-0.1   FAngle=0   DAngle=0
 
TABLE:  "MATERIAL PROPERTIES 06 - DAMPING PARAMETERS"
   Material=4000Psi   ModalRatio=0   VisMass=0   VisStiff=0   HysMass=0   HysStiff=0
   Material=A992Fy50   ModalRatio=0   VisMass=0   VisStiff=0   HysMass=0   HysStiff=0
 
TABLE:  "OPTIONS - COLORS - DISPLAY"
   DeviceType=Screen   Points=Blue   LinesFrame=Blue   LinesFrmDL=Blue   LinesCable=Green   LinesTendon=Green   SpringLinks=Green   Restraints=Green   Releases=Green   Axes=Cyan   Text=Black   ShadowLines=Gray8Dark   GuideLines=Gray8Dark _
        Highlight=Red   Selection=10504778   AreaFillBot=Red   AreaFillTop=16744703   AreaFillSd=Red   AreaEdge=DarkRed   SolidF1=Red   SolidF2=Blue   SolidF3=Green   SolidF4=Yellow   SolidF5=White   SolidF6=Cyan   SolidEdge=DarkRed _
        Floor=Gray4   Background=White   BGLowLeft=White   BGLowRight=White   BGUpRight=White   Darkness=0.5
   DeviceType=Printer   Points=Gray8Dark   LinesFrame=Black   LinesFrmDL=Gray4   LinesCable=Black   LinesTendon=Black   SpringLinks=Gray8Dark   Restraints=Gray8Dark   Releases=Gray4   Axes=Black   Text=Black   ShadowLines=Gray4 _
        GuideLines=Gray4   Highlight=Black   Selection=Black   AreaFillBot=Gray4   AreaFillTop=Gray8Dark   AreaFillSd=Gray4   AreaEdge=Black   SolidF1=Gray1Light   SolidF2=Gray2   SolidF3=Gray3   SolidF4=Gray4   SolidF5=Gray5 _
        SolidF6=Gray6   SolidEdge=Black   Floor=Gray4   Background=White   BGLowLeft=White   BGLowRight=White   BGUpRight=White   Darkness=0.5
   DeviceType="Color Printer"   Points=Blue   LinesFrame=Blue   LinesFrmDL=Blue   LinesCable=Green   LinesTendon=Green   SpringLinks=Green   Restraints=Green   Releases=Green   Axes=Cyan   Text=Black   ShadowLines=Gray8Dark _
        GuideLines=Gray8Dark   Highlight=Red   Selection=10504778   AreaFillBot=Red   AreaFillTop=16744703   AreaFillSd=Red   AreaEdge=DarkRed   SolidF1=Red   SolidF2=Blue   SolidF3=Green   SolidF4=Yellow   SolidF5=White   SolidF6=Cyan _
        SolidEdge=DarkRed   Floor=Gray4   Background=White   BGLowLeft=White   BGLowRight=White   BGUpRight=White   Darkness=0.5
 
TABLE:  "OPTIONS - COLORS - OUTPUT"
   DeviceType=Screen   Contour1=13107400   Contour2=6553828   Contour3=Red   Contour4=16639   Contour5=Orange   Contour6=43775   Contour7=54527   Contour8=Yellow   Contour9=65408   Contour10=Green   Contour11=8453888   Contour12=Cyan _
        Contour13=16755200   Contour14=16733440   Contour15=Blue   Transpare=0.5   Ratio1=Cyan   Ratio2=Green   Ratio3=Yellow   Ratio4=Orange   Ratio5=Red   RatioNotD=Gray4   RatioNotC=Red   RatioVal1=0.5   RatioVal2=0.7   RatioVal3=0.9 _
        RatioVal4=1   DFillPos=Blue   DFillNeg=Red   DFillRPos=Green   DFillRNeg=Green
   DeviceType=Printer   Contour1=Black   Contour2=3158064   Contour3=4210752   Contour4=5263440   Contour5=6316128   Contour6=7368816   Contour7=Gray8Dark   Contour8=Gray7   Contour9=Gray6   Contour10=Gray5   Contour11=Gray4 _
        Contour12=Gray3   Contour13=Gray2   Contour14=Gray1Light   Contour15=White   Transpare=0   Ratio1=Gray2   Ratio2=Gray4   Ratio3=Gray8Dark   Ratio4=4210752   Ratio5=Black   RatioNotD=Gray4   RatioNotC=Black   RatioVal1=0.5 _
        RatioVal2=0.7   RatioVal3=0.9   RatioVal4=1   DFillPos=Gray8Dark   DFillNeg=Gray8Dark   DFillRPos=4210752   DFillRNeg=4210752
   DeviceType="Color Printer"   Contour1=13107400   Contour2=6553828   Contour3=Red   Contour4=16639   Contour5=Orange   Contour6=43775   Contour7=54527   Contour8=Yellow   Contour9=65408   Contour10=Green   Contour11=8453888 _
        Contour12=Cyan   Contour13=16755200   Contour14=16733440   Contour15=Blue   Transpare=0   Ratio1=Cyan   Ratio2=Green   Ratio3=Yellow   Ratio4=Orange   Ratio5=Red   RatioNotD=Gray4   RatioNotC=Red   RatioVal1=0.5   RatioVal2=0.7 _
        RatioVal3=0.9   RatioVal4=1   DFillPos=Blue   DFillNeg=Red   DFillRPos=Green   DFillRNeg=Green
 
TABLE:  "OVERWRITES - STEEL DESIGN - AISC 360-10"
   Frame=1   DesignSect="Program Determined"   FrameType="Program Determined"   Fy=0   RLLF=0   AreaRatio=0   XLMajor=0   XLMinor=0   XLLTB=0   K1Major=0   K1Minor=0   K2Major=0   K2Minor=0   KLTB=0   CmMajor=0   CmMinor=0   Cb=0 _
        B1Major=0   B1Minor=0   B2Major=0   B2Minor=0   HSSReduceT="Program Determined"   HSSWelding="Program Determined"   Omega0=0   Ry=0   Pnc=0   Pnt=0   Mn3=0   Mn2=0   Vn2=0   Vn3=0   CheckDefl="Program Determined" _
        DeflType="Program Determined"   DLRat=0   SDLAndLLRat=0   LLRat=0   TotalRat=0   NetRat=0   DLAbs=0   SDLAndLLAbs=0   LLAbs=0   TotalAbs=0   NetAbs=0   SpecCamber=0   DCLimit=0
   Frame=2   DesignSect="Program Determined"   FrameType="Program Determined"   Fy=0   RLLF=0   AreaRatio=0   XLMajor=0   XLMinor=0   XLLTB=0   K1Major=0   K1Minor=0   K2Major=0   K2Minor=0   KLTB=0   CmMajor=0   CmMinor=0   Cb=0 _
        B1Major=0   B1Minor=0   B2Major=0   B2Minor=0   HSSReduceT="Program Determined"   HSSWelding="Program Determined"   Omega0=0   Ry=0   Pnc=0   Pnt=0   Mn3=0   Mn2=0   Vn2=0   Vn3=0   CheckDefl="Program Determined" _
        DeflType="Program Determined"   DLRat=0   SDLAndLLRat=0   LLRat=0   TotalRat=0   NetRat=0   DLAbs=0   SDLAndLLAbs=0   LLAbs=0   TotalAbs=0   NetAbs=0   SpecCamber=0   DCLimit=0
   Frame=3   DesignSect="Program Determined"   FrameType="Program Determined"   Fy=0   RLLF=0   AreaRatio=0   XLMajor=0   XLMinor=0   XLLTB=0   K1Major=0   K1Minor=0   K2Major=0   K2Minor=0   KLTB=0   CmMajor=0   CmMinor=0   Cb=0 _
        B1Major=0   B1Minor=0   B2Major=0   B2Minor=0   HSSReduceT="Program Determined"   HSSWelding="Program Determined"   Omega0=0   Ry=0   Pnc=0   Pnt=0   Mn3=0   Mn2=0   Vn2=0   Vn3=0   CheckDefl="Program Determined" _
        DeflType="Program Determined"   DLRat=0   SDLAndLLRat=0   LLRat=0   TotalRat=0   NetRat=0   DLAbs=0   SDLAndLLAbs=0   LLAbs=0   TotalAbs=0   NetAbs=0   SpecCamber=0   DCLimit=0
   Frame=4   DesignSect="Program Determined"   FrameType="Program Determined"   Fy=0   RLLF=0   AreaRatio=0   XLMajor=0   XLMinor=0   XLLTB=0   K1Major=0   K1Minor=0   K2Major=0   K2Minor=0   KLTB=0   CmMajor=0   CmMinor=0   Cb=0 _
        B1Major=0   B1Minor=0   B2Major=0   B2Minor=0   HSSReduceT="Program Determined"   HSSWelding="Program Determined"   Omega0=0   Ry=0   Pnc=0   Pnt=0   Mn3=0   Mn2=0   Vn2=0   Vn3=0   CheckDefl="Program Determined" _
        DeflType="Program Determined"   DLRat=0   SDLAndLLRat=0   LLRat=0   TotalRat=0   NetRat=0   DLAbs=0   SDLAndLLAbs=0   LLAbs=0   TotalAbs=0   NetAbs=0   SpecCamber=0   DCLimit=0
   Frame=5   DesignSect="Program Determined"   FrameType="Program Determined"   Fy=0   RLLF=0   AreaRatio=0   XLMajor=0   XLMinor=0   XLLTB=0   K1Major=0   K1Minor=0   K2Major=0   K2Minor=0   KLTB=0   CmMajor=0   CmMinor=0   Cb=0 _
        B1Major=0   B1Minor=0   B2Major=0   B2Minor=0   HSSReduceT="Program Determined"   HSSWelding="Program Determined"   Omega0=0   Ry=0   Pnc=0   Pnt=0   Mn3=0   Mn2=0   Vn2=0   Vn3=0   CheckDefl="Program Determined" _
        DeflType="Program Determined"   DLRat=0   SDLAndLLRat=0   LLRat=0   TotalRat=0   NetRat=0   DLAbs=0   SDLAndLLAbs=0   LLAbs=0   TotalAbs=0   NetAbs=0   SpecCamber=0   DCLimit=0
   Frame=6   DesignSect="Program Determined"   FrameType="Program Determined"   Fy=0   RLLF=0   AreaRatio=0   XLMajor=0   XLMinor=0   XLLTB=0   K1Major=0   K1Minor=0   K2Major=0   K2Minor=0   KLTB=0   CmMajor=0   CmMinor=0   Cb=0 _
        B1Major=0   B1Minor=0   B2Major=0   B2Minor=0   HSSReduceT="Program Determined"   HSSWelding="Program Determined"   Omega0=0   Ry=0   Pnc=0   Pnt=0   Mn3=0   Mn2=0   Vn2=0   Vn3=0   CheckDefl="Program Determined" _
        DeflType="Program Determined"   DLRat=0   SDLAndLLRat=0   LLRat=0   TotalRat=0   NetRat=0   DLAbs=0   SDLAndLLAbs=0   LLAbs=0   TotalAbs=0   NetAbs=0   SpecCamber=0   DCLimit=0
   Frame=7   DesignSect="Program Determined"   FrameType="Program Determined"   Fy=0   RLLF=0   AreaRatio=0   XLMajor=0   XLMinor=0   XLLTB=0   K1Major=0   K1Minor=0   K2Major=0   K2Minor=0   KLTB=0   CmMajor=0   CmMinor=0   Cb=0 _
        B1Major=0   B1Minor=0   B2Major=0   B2Minor=0   HSSReduceT="Program Determined"   HSSWelding="Program Determined"   Omega0=0   Ry=0   Pnc=0   Pnt=0   Mn3=0   Mn2=0   Vn2=0   Vn3=0   CheckDefl="Program Determined" _
        DeflType="Program Determined"   DLRat=0   SDLAndLLRat=0   LLRat=0   TotalRat=0   NetRat=0   DLAbs=0   SDLAndLLAbs=0   LLAbs=0   TotalAbs=0   NetAbs=0   SpecCamber=0   DCLimit=0
   Frame=8   DesignSect="Program Determined"   FrameType="Program Determined"   Fy=0   RLLF=0   AreaRatio=0   XLMajor=0   XLMinor=0   XLLTB=0   K1Major=0   K1Minor=0   K2Major=0   K2Minor=0   KLTB=0   CmMajor=0   CmMinor=0   Cb=0 _
        B1Major=0   B1Minor=0   B2Major=0   B2Minor=0   HSSReduceT="Program Determined"   HSSWelding="Program Determined"   Omega0=0   Ry=0   Pnc=0   Pnt=0   Mn3=0   Mn2=0   Vn2=0   Vn3=0   CheckDefl="Program Determined" _
        DeflType="Program Determined"   DLRat=0   SDLAndLLRat=0   LLRat=0   TotalRat=0   NetRat=0   DLAbs=0   SDLAndLLAbs=0   LLAbs=0   TotalAbs=0   NetAbs=0   SpecCamber=0   DCLimit=0
   Frame=9   DesignSect="Program Determined"   FrameType="Program Determined"   Fy=0   RLLF=0   AreaRatio=0   XLMajor=0   XLMinor=0   XLLTB=0   K1Major=0   K1Minor=0   K2Major=0   K2Minor=0   KLTB=0   CmMajor=0   CmMinor=0   Cb=0 _
        B1Major=0   B1Minor=0   B2Major=0   B2Minor=0   HSSReduceT="Program Determined"   HSSWelding="Program Determined"   Omega0=0   Ry=0   Pnc=0   Pnt=0   Mn3=0   Mn2=0   Vn2=0   Vn3=0   CheckDefl="Program Determined" _
        DeflType="Program Determined"   DLRat=0   SDLAndLLRat=0   LLRat=0   TotalRat=0   NetRat=0   DLAbs=0   SDLAndLLAbs=0   LLAbs=0   TotalAbs=0   NetAbs=0   SpecCamber=0   DCLimit=0
   Frame=64   DesignSect="Program Determined"   FrameType="Program Determined"   Fy=0   RLLF=0   AreaRatio=0   XLMajor=0   XLMinor=0   XLLTB=0   K1Major=0   K1Minor=0   K2Major=0   K2Minor=0   KLTB=0   CmMajor=0   CmMinor=0   Cb=0 _
        B1Major=0   B1Minor=0   B2Major=0   B2Minor=0   HSSReduceT="Program Determined"   HSSWelding="Program Determined"   Omega0=0   Ry=0   Pnc=0   Pnt=0   Mn3=0   Mn2=0   Vn2=0   Vn3=0   CheckDefl="Program Determined" _
        DeflType="Program Determined"   DLRat=0   SDLAndLLRat=0   LLRat=0   TotalRat=0   NetRat=0   DLAbs=0   SDLAndLLAbs=0   LLAbs=0   TotalAbs=0   NetAbs=0   SpecCamber=0   DCLimit=0
   Frame=64   DesignSect="Program Determined"   FrameType="Program Determined"   Fy=0   RLLF=0   AreaRatio=0   XLMajor=0   XLMinor=0   XLLTB=0   K1Major=0   K1Minor=0   K2Major=0   K2Minor=0   KLTB=0   CmMajor=0   CmMinor=0   Cb=0 _
        B1Major=0   B1Minor=0   B2Major=0   B2Minor=0   HSSReduceT="Program Determined"   HSSWelding="Program Determined"   Omega0=0   Ry=0   Pnc=0   Pnt=0   Mn3=0   Mn2=0   Vn2=0   Vn3=0   CheckDefl="Program Determined" _
        DeflType="Program Determined"   DLRat=0   SDLAndLLRat=0   LLRat=0   TotalRat=0   NetRat=0   DLAbs=0   SDLAndLLAbs=0   LLAbs=0   TotalAbs=0   NetAbs=0   SpecCamber=0   DCLimit=0
   Frame=65   DesignSect="Program Determined"   FrameType="Program Determined"   Fy=0   RLLF=0   AreaRatio=0   XLMajor=0   XLMinor=0   XLLTB=0   K1Major=0   K1Minor=0   K2Major=0   K2Minor=0   KLTB=0   CmMajor=0   CmMinor=0   Cb=0 _
        B1Major=0   B1Minor=0   B2Major=0   B2Minor=0   HSSReduceT="Program Determined"   HSSWelding="Program Determined"   Omega0=0   Ry=0   Pnc=0   Pnt=0   Mn3=0   Mn2=0   Vn2=0   Vn3=0   CheckDefl="Program Determined" _
        DeflType="Program Determined"   DLRat=0   SDLAndLLRat=0   LLRat=0   TotalRat=0   NetRat=0   DLAbs=0   SDLAndLLAbs=0   LLAbs=0   TotalAbs=0   NetAbs=0   SpecCamber=0   DCLimit=0
   Frame=65   DesignSect="Program Determined"   FrameType="Program Determined"   Fy=0   RLLF=0   AreaRatio=0   XLMajor=0   XLMinor=0   XLLTB=0   K1Major=0   K1Minor=0   K2Major=0   K2Minor=0   KLTB=0   CmMajor=0   CmMinor=0   Cb=0 _
        B1Major=0   B1Minor=0   B2Major=0   B2Minor=0   HSSReduceT="Program Determined"   HSSWelding="Program Determined"   Omega0=0   Ry=0   Pnc=0   Pnt=0   Mn3=0   Mn2=0   Vn2=0   Vn3=0   CheckDefl="Program Determined" _
        DeflType="Program Determined"   DLRat=0   SDLAndLLRat=0   LLRat=0   TotalRat=0   NetRat=0   DLAbs=0   SDLAndLLAbs=0   LLAbs=0   TotalAbs=0   NetAbs=0   SpecCamber=0   DCLimit=0
   Frame=66   DesignSect="Program Determined"   FrameType="Program Determined"   Fy=0   RLLF=0   AreaRatio=0   XLMajor=0   XLMinor=0   XLLTB=0   K1Major=0   K1Minor=0   K2Major=0   K2Minor=0   KLTB=0   CmMajor=0   CmMinor=0   Cb=0 _
        B1Major=0   B1Minor=0   B2Major=0   B2Minor=0   HSSReduceT="Program Determined"   HSSWelding="Program Determined"   Omega0=0   Ry=0   Pnc=0   Pnt=0   Mn3=0   Mn2=0   Vn2=0   Vn3=0   CheckDefl="Program Determined" _
        DeflType="Program Determined"   DLRat=0   SDLAndLLRat=0   LLRat=0   TotalRat=0   NetRat=0   DLAbs=0   SDLAndLLAbs=0   LLAbs=0   TotalAbs=0   NetAbs=0   SpecCamber=0   DCLimit=0
   Frame=66   DesignSect="Program Determined"   FrameType="Program Determined"   Fy=0   RLLF=0   AreaRatio=0   XLMajor=0   XLMinor=0   XLLTB=0   K1Major=0   K1Minor=0   K2Major=0   K2Minor=0   KLTB=0   CmMajor=0   CmMinor=0   Cb=0 _
        B1Major=0   B1Minor=0   B2Major=0   B2Minor=0   HSSReduceT="Program Determined"   HSSWelding="Program Determined"   Omega0=0   Ry=0   Pnc=0   Pnt=0   Mn3=0   Mn2=0   Vn2=0   Vn3=0   CheckDefl="Program Determined" _
        DeflType="Program Determined"   DLRat=0   SDLAndLLRat=0   LLRat=0   TotalRat=0   NetRat=0   DLAbs=0   SDLAndLLAbs=0   LLAbs=0   TotalAbs=0   NetAbs=0   SpecCamber=0   DCLimit=0
   Frame=67   DesignSect="Program Determined"   FrameType="Program Determined"   Fy=0   RLLF=0   AreaRatio=0   XLMajor=0   XLMinor=0   XLLTB=0   K1Major=0   K1Minor=0   K2Major=0   K2Minor=0   KLTB=0   CmMajor=0   CmMinor=0   Cb=0 _
        B1Major=0   B1Minor=0   B2Major=0   B2Minor=0   HSSReduceT="Program Determined"   HSSWelding="Program Determined"   Omega0=0   Ry=0   Pnc=0   Pnt=0   Mn3=0   Mn2=0   Vn2=0   Vn3=0   CheckDefl="Program Determined" _
        DeflType="Program Determined"   DLRat=0   SDLAndLLRat=0   LLRat=0   TotalRat=0   NetRat=0   DLAbs=0   SDLAndLLAbs=0   LLAbs=0   TotalAbs=0   NetAbs=0   SpecCamber=0   DCLimit=0
   Frame=67   DesignSect="Program Determined"   FrameType="Program Determined"   Fy=0   RLLF=0   AreaRatio=0   XLMajor=0   XLMinor=0   XLLTB=0   K1Major=0   K1Minor=0   K2Major=0   K2Minor=0   KLTB=0   CmMajor=0   CmMinor=0   Cb=0 _
        B1Major=0   B1Minor=0   B2Major=0   B2Minor=0   HSSReduceT="Program Determined"   HSSWelding="Program Determined"   Omega0=0   Ry=0   Pnc=0   Pnt=0   Mn3=0   Mn2=0   Vn2=0   Vn3=0   CheckDefl="Program Determined" _
        DeflType="Program Determined"   DLRat=0   SDLAndLLRat=0   LLRat=0   TotalRat=0   NetRat=0   DLAbs=0   SDLAndLLAbs=0   LLAbs=0   TotalAbs=0   NetAbs=0   SpecCamber=0   DCLimit=0
   Frame=68   DesignSect="Program Determined"   FrameType="Program Determined"   Fy=0   RLLF=0   AreaRatio=0   XLMajor=0   XLMinor=0   XLLTB=0   K1Major=0   K1Minor=0   K2Major=0   K2Minor=0   KLTB=0   CmMajor=0   CmMinor=0   Cb=0 _
        B1Major=0   B1Minor=0   B2Major=0   B2Minor=0   HSSReduceT="Program Determined"   HSSWelding="Program Determined"   Omega0=0   Ry=0   Pnc=0   Pnt=0   Mn3=0   Mn2=0   Vn2=0   Vn3=0   CheckDefl="Program Determined" _
        DeflType="Program Determined"   DLRat=0   SDLAndLLRat=0   LLRat=0   TotalRat=0   NetRat=0   DLAbs=0   SDLAndLLAbs=0   LLAbs=0   TotalAbs=0   NetAbs=0   SpecCamber=0   DCLimit=0
   Frame=68   DesignSect="Program Determined"   FrameType="Program Determined"   Fy=0   RLLF=0   AreaRatio=0   XLMajor=0   XLMinor=0   XLLTB=0   K1Major=0   K1Minor=0   K2Major=0   K2Minor=0   KLTB=0   CmMajor=0   CmMinor=0   Cb=0 _
        B1Major=0   B1Minor=0   B2Major=0   B2Minor=0   HSSReduceT="Program Determined"   HSSWelding="Program Determined"   Omega0=0   Ry=0   Pnc=0   Pnt=0   Mn3=0   Mn2=0   Vn2=0   Vn3=0   CheckDefl="Program Determined" _
        DeflType="Program Determined"   DLRat=0   SDLAndLLRat=0   LLRat=0   TotalRat=0   NetRat=0   DLAbs=0   SDLAndLLAbs=0   LLAbs=0   TotalAbs=0   NetAbs=0   SpecCamber=0   DCLimit=0
   Frame=69   DesignSect="Program Determined"   FrameType="Program Determined"   Fy=0   RLLF=0   AreaRatio=0   XLMajor=0   XLMinor=0   XLLTB=0   K1Major=0   K1Minor=0   K2Major=0   K2Minor=0   KLTB=0   CmMajor=0   CmMinor=0   Cb=0 _
        B1Major=0   B1Minor=0   B2Major=0   B2Minor=0   HSSReduceT="Program Determined"   HSSWelding="Program Determined"   Omega0=0   Ry=0   Pnc=0   Pnt=0   Mn3=0   Mn2=0   Vn2=0   Vn3=0   CheckDefl="Program Determined" _
        DeflType="Program Determined"   DLRat=0   SDLAndLLRat=0   LLRat=0   TotalRat=0   NetRat=0   DLAbs=0   SDLAndLLAbs=0   LLAbs=0   TotalAbs=0   NetAbs=0   SpecCamber=0   DCLimit=0
# ... 381 like lines cut
 
TABLE:  "PREFERENCES - ALUMINUM DESIGN - AA-ASD 2000"
   THDesign=Envelopes   FrameType="Moment Frame"   SRatioLimit=1   MaxIter=1   LatFact=1.33333333333333   UseLatFact=No   Bridge=No
 
TABLE:  "PREFERENCES - COLD FORMED DESIGN - AISI-ASD96"
   THDesign=Envelopes   FrameType="Braced Frame"   SRatioLimit=1   MaxIter=1   OmegaBS=1.67   OmegaBUS=1.67   OmegaBLTB=1.67   OmegaVS=1.67   OmegaVNS=1.5   OmegaT=1.67   OmegaC=1.8
 
TABLE:  "PREFERENCES - CONCRETE DESIGN - ACI 318-14"
   THDesign=Envelopes   NumCurves=24   NumPoints=11   MinEccen=Yes   PatLLF=0.75   UFLimit=0.95   SeisCat=D   Rho=1   Sds=0.5   PhiT=0.9   PhiCTied=0.65   PhiCSpiral=0.75   PhiV=0.75   PhiVSeismic=0.6   PhiVJoint=0.85
 
TABLE:  "PREFERENCES - DIMENSIONAL"
   MergeTol=0.1   FineGrid=12   Nudge=12   SelectTol=3   SnapTol=12   SLineThick=2   PLineThick=4   MaxFont=8   MinFont=3   AutoZoom=10   ShrinkFact=70   TextFileLen=240
 
TABLE:  "PREFERENCES - STEEL DESIGN - AISC 360-10"
   THDesign=Envelopes   FrameType=SMF   PatLLF=0.75   SRatioLimit=0.95   MaxIter=1   SDC=D   SeisCode=Yes   SeisLoad=Yes   ImpFactor=1   SystemRho=1   SystemSds=0.5   SystemR=8   SystemCd=5.5   Omega0=3   Provision=LRFD _
        AMethod="Direct Analysis"   SOMethod="General 2nd Order"   SRMethod="Tau-b Fixed"   NLCoeff=0.002   PhiB=0.9   PhiC=0.9   PhiTY=0.9   PhiTF=0.75   PhiV=0.9   PhiVRolledI=1   PhiVT=0.9   PlugWeld=Yes   HSSWelding=ERW   HSSReduceT=No _
        CheckDefl=No   DLRat=120   SDLAndLLRat=120   LLRat=360   TotalRat=240   NetRat=240
 
TABLE:  "PROGRAM CONTROL"
   ProgramName=SAP2000   Version=19.2.0   CurrUnits="Kip, in, F"   SteelCode="AISC 360-10"   ConcCode="ACI 318-14"   AlumCode="AA-ASD 2000"   ColdCode=AISI-ASD96   RegenHinge=Yes
 
TABLE:  "PROJECT INFORMATION"
   Item="Company Name"   Data="University of Washington"
   Item="Client Name"
   Item="Project Name"
   Item="Project Number"
   Item="Model Name"
   Item="Model Description"
   Item="Revision Number"
   Item="Frame Type"
   Item=Engineer
   Item=Checker
   Item=Supervisor
   Item="Issue Code"
   Item="Design Code"
 
TABLE:  "REBAR SIZES"
   RebarID=#2   Area=0.05   Diameter=0.25
   RebarID=#3   Area=0.109999999403954   Diameter=0.375
   RebarID=#4   Area=0.200000002980232   Diameter=0.5
   RebarID=#5   Area=0.310000002384186   Diameter=0.625
   RebarID=#6   Area=0.439999997615814   Diameter=0.75
   RebarID=#7   Area=0.600000023841858   Diameter=0.875
   RebarID=#8   Area=0.790000021457672   Diameter=1
   RebarID=#9   Area=1   Diameter=1.12800002098084
   RebarID=#10   Area=1.26999998092651   Diameter=1.26999998092651
   RebarID=#11   Area=1.55999994277954   Diameter=1.4099999666214
   RebarID=#14   Area=2.25   Diameter=1.692999958992
   RebarID=#18   Area=4   Diameter=2.25699996948242
   RebarID=10M   Area=0.155000314116478   Diameter=0.444881916046143
   RebarID=15M   Area=0.310000628232956   Diameter=0.62992125749588
   RebarID=20M   Area=0.465000957250595   Diameter=0.767716526985168
   RebarID=25M   Area=0.775001585483551   Diameter=0.992126047611237
   RebarID=30M   Area=1.08500218391418   Diameter=1.17716538906097
   RebarID=35M   Area=1.5500031709671   Diameter=1.4055118560791
   RebarID=45M   Area=2.3250048160553   Diameter=1.72047245502472
   RebarID=55M   Area=3.87500786781311   Diameter=2.22047257423401
   RebarID=6d   Area=0.0438650883734226   Diameter=0.236220479011536
   RebarID=8d   Area=0.0779651552438736   Diameter=0.31496062874794
   RebarID=10d   Area=0.121675245463848   Diameter=0.393700778484344
   RebarID=12d   Area=0.175150364637375   Diameter=0.472440958023071
   RebarID=14d   Area=0.238700494170189   Diameter=0.551181137561798
   RebarID=16d   Area=0.31155064702034   Diameter=0.62992125749588
   RebarID=20d   Area=0.486700981855392   Diameter=0.787401556968689
   RebarID=25d   Area=0.761051535606384   Diameter=0.984251976013184
   RebarID=26d   Area=0.823051691055298   Diameter=1.02362203598022
   RebarID=28d   Area=0.954801976680756   Diameter=1.1023622751236
   RebarID=N12   Area=0.175150364637375   Diameter=0.472440958023071
   RebarID=N16   Area=0.31155064702034   Diameter=0.62992125749588
   RebarID=N20   Area=0.486700981855392   Diameter=0.787401556968689
   RebarID=N24   Area=0.7006014585495   Diameter=0.944881916046143
   RebarID=N28   Area=0.954801976680756   Diameter=1.1023622751236
   RebarID=N32   Area=1.24620258808136   Diameter=1.25984251499176
   RebarID=N36   Area=1.58100318908691   Diameter=1.41732287406921
 
END TABLE DATA
